ZINC02260257
 OpenBabel07151514423D

 34 34  0  0  0  0  0  0  0  0999 V2000
   35.5797   11.2624   66.0285 C   0  0  0  0  0  0  0  0  0  0  0  0
   34.4055   10.9007   66.6648 C   0  0  0  0  0  0  0  0  0  0  0  0
   33.3821   10.3144   65.9488 C   0  0  0  0  0  0  0  0  0  0  0  0
   33.5329   10.0862   64.5818 C   0  0  0  0  0  0  0  0  0  0  0  0
   34.7207   10.4471   63.9473 C   0  0  0  0  0  0  0  0  0  0  0  0
   35.7352   11.0380   64.6722 C   0  0  0  0  0  0  0  0  0  0  0  0
   32.1919    9.3159   63.6339 P   0  0  1  0  0  0  0  0  0  0  0  0
   31.8291   10.4206   62.2296 C   0  0  0  0  0  0  0  0  0  0  0  0
   30.9515   11.5797   62.7062 C   0  0  0  0  0  0  0  0  0  0  0  0
   31.0266   12.9376   61.4922 P   0  0  2  0  0  0  0  0  0  0  0  0
   30.8660   14.1799   62.1612 H   0  0  0  0  0  0  0  0  0  0  0  0
   29.9443   12.7699   60.4967 O   0  0  0  0  0  0  0  0  0  0  0  0
   32.4523   12.9111   60.7448 O   0  0  0  0  0  0  0  0  0  0  0  0
   32.8536    7.7671   62.9363 C   0  0  0  0  0  0  0  0  0  0  0  0
   31.7214    6.7483   62.7914 C   0  0  0  0  0  0  0  0  0  0  0  0
   31.5048    5.8525   64.3643 P   0  0  2  0  0  0  0  0  0  0  0  0
   31.0789    6.7594   65.3706 H   0  0  0  0  0  0  0  0  0  0  0  0
   32.7913    5.2400   64.7644 O   0  0  0  0  0  0  0  0  0  0  0  0
   30.3968    4.6996   64.1771 O   0  0  0  0  0  0  0  0  0  0  0  0
   36.3779   11.7213   66.5929 H   0  0  0  0  0  0  0  0  0  0  0  0
   34.2896   11.0780   67.7239 H   0  0  0  0  0  0  0  0  0  0  0  0
   32.4660   10.0325   66.4465 H   0  0  0  0  0  0  0  0  0  0  0  0
   34.8450   10.2682   62.8894 H   0  0  0  0  0  0  0  0  0  0  0  0
   36.6542   11.3217   64.1808 H   0  0  0  0  0  0  0  0  0  0  0  0
   32.7622   10.8134   61.8260 H   0  0  0  0  0  0  0  0  0  0  0  0
   31.3043    9.8622   61.4544 H   0  0  0  0  0  0  0  0  0  0  0  0
   29.9213   11.2382   62.8062 H   0  0  0  0  0  0  0  0  0  0  0  0
   31.3117   11.9351   63.6716 H   0  0  0  0  0  0  0  0  0  0  0  0
   32.6278   12.0922   60.2615 H   0  0  0  0  0  0  0  0  0  0  0  0
   33.2899    7.9667   61.9576 H   0  0  0  0  0  0  0  0  0  0  0  0
   33.6195    7.3672   63.6008 H   0  0  0  0  0  0  0  0  0  0  0  0
   30.7964    7.2666   62.5382 H   0  0  0  0  0  0  0  0  0  0  0  0
   31.9691    6.0399   62.0008 H   0  0  0  0  0  0  0  0  0  0  0  0
   30.6220    4.0432   63.5035 H   0  0  0  0  0  0  0  0  0  0  0  0
  1  6  2  0  0  0  0
  1  2  1  0  0  0  0
  1 20  1  0  0  0  0
  2  3  2  0  0  0  0
  2 21  1  0  0  0  0
  3  4  1  0  0  0  0
  3 22  1  0  0  0  0
  4  5  2  0  0  0  0
  5  6  1  0  0  0  0
  5 23  1  0  0  0  0
  6 24  1  0  0  0  0
  7  4  1  1  0  0  0
  7  8  1  0  0  0  0
  7 14  1  0  0  0  0
  8  9  1  0  0  0  0
  8 25  1  0  0  0  0
  8 26  1  0  0  0  0
  9 10  1  0  0  0  0
  9 27  1  0  0  0  0
  9 28  1  0  0  0  0
 10 11  1  1  0  0  0
 10 12  2  0  0  0  0
 10 13  1  0  0  0  0
 13 29  1  0  0  0  0
 14 15  1  0  0  0  0
 14 30  1  0  0  0  0
 14 31  1  0  0  0  0
 15 16  1  0  0  0  0
 15 32  1  0  0  0  0
 15 33  1  0  0  0  0
 16 17  1  1  0  0  0
 16 18  2  0  0  0  0
 16 19  1  0  0  0  0
 19 34  1  0  0  0  0
M  END
$$$$
ZINC02260256
 OpenBabel07151514423D

 34 34  0  0  0  0  0  0  0  0999 V2000
   35.7642   11.7394   63.3990 C   0  0  0  0  0  0  0  0  0  0  0  0
   35.4018   11.1226   62.2146 C   0  0  0  0  0  0  0  0  0  0  0  0
   34.3168   10.2707   62.1813 C   0  0  0  0  0  0  0  0  0  0  0  0
   33.5852   10.0323   63.3439 C   0  0  0  0  0  0  0  0  0  0  0  0
   33.9517   10.6608   64.5331 C   0  0  0  0  0  0  0  0  0  0  0  0
   35.0414   11.5068   64.5557 C   0  0  0  0  0  0  0  0  0  0  0  0
   32.1570    8.9143   63.3075 P   0  0  1  0  0  0  0  0  0  0  0  0
   31.0017    9.5660   62.0569 C   0  0  0  0  0  0  0  0  0  0  0  0
   29.8707   10.3250   62.7537 C   0  0  0  0  0  0  0  0  0  0  0  0
   30.5781   11.6049   63.8420 P   0  0  1  0  0  0  0  0  0  0  0  0
   29.6616   12.6828   63.9629 H   0  0  0  0  0  0  0  0  0  0  0  0
   30.8386   11.0266   65.1793 O   0  0  0  0  0  0  0  0  0  0  0  0
   31.9586   12.1422   63.2116 O   0  0  0  0  0  0  0  0  0  0  0  0
   32.7553    7.3054   62.6935 C   0  0  0  0  0  0  0  0  0  0  0  0
   32.1510    6.1810   63.5372 C   0  0  0  0  0  0  0  0  0  0  0  0
   32.9333    6.1691   65.1837 P   0  0  2  0  0  0  0  0  0  0  0  0
   34.3016    5.8120   65.0552 H   0  0  0  0  0  0  0  0  0  0  0  0
   32.2457    5.1851   66.0494 O   0  0  0  0  0  0  0  0  0  0  0  0
   32.8206    7.6342   65.8420 O   0  0  0  0  0  0  0  0  0  0  0  0
   36.6141   12.4053   63.4205 H   0  0  0  0  0  0  0  0  0  0  0  0
   35.9695   11.3077   61.3149 H   0  0  0  0  0  0  0  0  0  0  0  0
   34.0347    9.7900   61.2563 H   0  0  0  0  0  0  0  0  0  0  0  0
   33.3860   10.4830   65.4357 H   0  0  0  0  0  0  0  0  0  0  0  0
   35.3286   11.9914   65.4772 H   0  0  0  0  0  0  0  0  0  0  0  0
   31.5343   10.2417   61.3875 H   0  0  0  0  0  0  0  0  0  0  0  0
   30.5845    8.7393   61.4822 H   0  0  0  0  0  0  0  0  0  0  0  0
   29.2339   10.7960   62.0050 H   0  0  0  0  0  0  0  0  0  0  0  0
   29.2786    9.6292   63.3483 H   0  0  0  0  0  0  0  0  0  0  0  0
   32.6328   11.4579   63.1003 H   0  0  0  0  0  0  0  0  0  0  0  0
   33.8423    7.2702   62.7663 H   0  0  0  0  0  0  0  0  0  0  0  0
   32.4562    7.1796   61.6529 H   0  0  0  0  0  0  0  0  0  0  0  0
   32.3251    5.2240   63.0453 H   0  0  0  0  0  0  0  0  0  0  0  0
   31.0787    6.3441   63.6455 H   0  0  0  0  0  0  0  0  0  0  0  0
   33.2170    7.7017   66.7213 H   0  0  0  0  0  0  0  0  0  0  0  0
  1  6  2  0  0  0  0
  1  2  1  0  0  0  0
  1 20  1  0  0  0  0
  2  3  2  0  0  0  0
  2 21  1  0  0  0  0
  3  4  1  0  0  0  0
  3 22  1  0  0  0  0
  4  5  2  0  0  0  0
  5  6  1  0  0  0  0
  5 23  1  0  0  0  0
  6 24  1  0  0  0  0
  7  4  1  6  0  0  0
  7  8  1  0  0  0  0
  7 14  1  0  0  0  0
  8  9  1  0  0  0  0
  8 25  1  0  0  0  0
  8 26  1  0  0  0  0
  9 10  1  0  0  0  0
  9 27  1  0  0  0  0
  9 28  1  0  0  0  0
 10 11  1  1  0  0  0
 10 12  2  0  0  0  0
 10 13  1  0  0  0  0
 13 29  1  0  0  0  0
 14 15  1  0  0  0  0
 14 30  1  0  0  0  0
 14 31  1  0  0  0  0
 15 16  1  0  0  0  0
 15 32  1  0  0  0  0
 15 33  1  0  0  0  0
 16 17  1  6  0  0  0
 16 18  2  0  0  0  0
 16 19  1  0  0  0  0
 19 34  1  0  0  0  0
M  END
$$$$
ZINC02260255
 OpenBabel07151514423D

 34 34  0  0  0  0  0  0  0  0999 V2000
   32.8432    5.0606   62.3696 C   0  0  0  0  0  0  0  0  0  0  0  0
   31.7871    5.6048   63.0789 C   0  0  0  0  0  0  0  0  0  0  0  0
   31.8230    6.9281   63.4677 C   0  0  0  0  0  0  0  0  0  0  0  0
   32.9260    7.7173   63.1444 C   0  0  0  0  0  0  0  0  0  0  0  0
   33.9846    7.1649   62.4250 C   0  0  0  0  0  0  0  0  0  0  0  0
   33.9401    5.8391   62.0456 C   0  0  0  0  0  0  0  0  0  0  0  0
   32.9798    9.4582   63.6517 P   0  0  2  0  0  0  0  0  0  0  0  0
   31.8743   10.3748   62.5286 C   0  0  0  0  0  0  0  0  0  0  0  0
   31.7259   11.8153   63.0226 C   0  0  0  0  0  0  0  0  0  0  0  0
   31.0483   12.8503   61.6838 P   0  0  2  0  0  0  0  0  0  0  0  0
   30.8625   14.1758   62.1580 H   0  0  0  0  0  0  0  0  0  0  0  0
   29.7481   12.2974   61.2429 O   0  0  0  0  0  0  0  0  0  0  0  0
   32.0745   12.8629   60.4433 O   0  0  0  0  0  0  0  0  0  0  0  0
   34.6737   10.0533   63.3351 C   0  0  0  0  0  0  0  0  0  0  0  0
   34.8626   11.4245   63.9867 C   0  0  0  0  0  0  0  0  0  0  0  0
   35.3167   11.2076   65.7387 P   0  0  1  0  0  0  0  0  0  0  0  0
   36.4604   10.3711   65.8312 H   0  0  0  0  0  0  0  0  0  0  0  0
   35.6210   12.5271   66.3365 O   0  0  0  0  0  0  0  0  0  0  0  0
   34.0902   10.5296   66.5311 O   0  0  0  0  0  0  0  0  0  0  0  0
   32.8109    4.0243   62.0674 H   0  0  0  0  0  0  0  0  0  0  0  0
   30.9335    4.9924   63.3291 H   0  0  0  0  0  0  0  0  0  0  0  0
   30.9980    7.3520   64.0211 H   0  0  0  0  0  0  0  0  0  0  0  0
   34.8396    7.7727   62.1682 H   0  0  0  0  0  0  0  0  0  0  0  0
   34.7614    5.4092   61.4915 H   0  0  0  0  0  0  0  0  0  0  0  0
   30.8962    9.8944   62.5097 H   0  0  0  0  0  0  0  0  0  0  0  0
   32.2976   10.3771   61.5242 H   0  0  0  0  0  0  0  0  0  0  0  0
   32.7016   12.1995   63.3207 H   0  0  0  0  0  0  0  0  0  0  0  0
   31.0499   11.8383   63.8775 H   0  0  0  0  0  0  0  0  0  0  0  0
   32.9552   13.1952   60.6649 H   0  0  0  0  0  0  0  0  0  0  0  0
   35.3910    9.3488   63.7564 H   0  0  0  0  0  0  0  0  0  0  0  0
   34.8345   10.1364   62.2602 H   0  0  0  0  0  0  0  0  0  0  0  0
   35.6552   11.9662   63.4701 H   0  0  0  0  0  0  0  0  0  0  0  0
   33.9331   11.9899   63.9195 H   0  0  0  0  0  0  0  0  0  0  0  0
   34.2616   10.3847   67.4717 H   0  0  0  0  0  0  0  0  0  0  0  0
  1  6  2  0  0  0  0
  1  2  1  0  0  0  0
  1 20  1  0  0  0  0
  2  3  2  0  0  0  0
  2 21  1  0  0  0  0
  3  4  1  0  0  0  0
  3 22  1  0  0  0  0
  4  5  2  0  0  0  0
  5  6  1  0  0  0  0
  5 23  1  0  0  0  0
  6 24  1  0  0  0  0
  7  4  1  6  0  0  0
  7  8  1  0  0  0  0
  7 14  1  0  0  0  0
  8  9  1  0  0  0  0
  8 25  1  0  0  0  0
  8 26  1  0  0  0  0
  9 10  1  0  0  0  0
  9 27  1  0  0  0  0
  9 28  1  0  0  0  0
 10 11  1  1  0  0  0
 10 12  2  0  0  0  0
 10 13  1  0  0  0  0
 13 29  1  0  0  0  0
 14 15  1  0  0  0  0
 14 30  1  0  0  0  0
 14 31  1  0  0  0  0
 15 16  1  0  0  0  0
 15 32  1  0  0  0  0
 15 33  1  0  0  0  0
 16 17  1  1  0  0  0
 16 18  2  0  0  0  0
 16 19  1  0  0  0  0
 19 34  1  0  0  0  0
M  END
$$$$
